Version 4
SHEET 1 880 680
WIRE -512 -304 -512 -368
WIRE -784 -240 -784 -272
WIRE -784 -240 -816 -240
WIRE -752 -240 -784 -240
WIRE -816 -224 -816 -240
WIRE -512 -224 -512 -240
WIRE -512 -224 -544 -224
WIRE -512 -208 -512 -224
WIRE -816 -144 -816 -160
WIRE -368 -128 -464 -128
WIRE -752 -112 -752 -240
WIRE -720 -112 -752 -112
WIRE -544 -112 -544 -224
WIRE -544 -112 -592 -112
WIRE -752 -80 -752 -112
WIRE -720 -80 -752 -80
WIRE -464 -80 -464 -128
WIRE -464 -80 -592 -80
WIRE -720 -48 -1008 -48
WIRE -512 -48 -512 -144
WIRE -512 -48 -592 -48
WIRE -720 -16 -848 -16
WIRE 272 -16 32 -16
WIRE 464 -16 272 -16
WIRE -848 16 -848 -16
WIRE -720 16 -768 16
WIRE -464 16 -592 16
WIRE 608 32 400 32
WIRE 704 32 608 32
WIRE 32 64 32 -16
WIRE 272 64 272 -16
WIRE 464 64 464 -16
WIRE -464 80 -464 16
WIRE -368 80 -464 80
WIRE 608 96 608 32
WIRE 704 96 704 32
WIRE -848 112 -848 96
WIRE -768 112 -768 16
WIRE -768 112 -848 112
WIRE -848 144 -848 112
WIRE 320 160 320 32
WIRE 320 160 272 160
WIRE 608 160 464 160
WIRE -512 240 -512 176
WIRE 32 256 32 144
WIRE 272 256 32 256
WIRE 464 256 272 256
WIRE 608 256 608 160
WIRE 704 256 704 176
WIRE 704 256 608 256
WIRE -512 368 -512 320
FLAG 224 144 GS
IOPIN 224 144 Out
FLAG 416 240 GS
IOPIN 416 240 Out
FLAG 416 144 !GS
IOPIN 416 144 Out
FLAG 224 240 !GS
IOPIN 224 240 Out
FLAG -288 80 !GS
IOPIN -288 80 Out
FLAG -288 -128 GS
IOPIN -288 -128 Out
FLAG -512 -368 12v
FLAG -848 144 0
FLAG -816 -144 0
FLAG -784 -272 12v
FLAG -512 176 12v
FLAG -512 368 0
FLAG -1008 32 0
SYMBOL nmos 224 64 R0
SYMATTR InstName M1
SYMATTR Value IPP048N12N3
SYMBOL nmos 416 64 R0
SYMATTR InstName M2
SYMATTR Value IPP048N12N3
SYMBOL nmos 224 160 R0
SYMATTR InstName M3
SYMATTR Value IPP048N12N3
SYMBOL nmos 416 160 R0
SYMATTR InstName M4
SYMATTR Value IPP048N12N3
SYMBOL ind 304 48 R270
WINDOW 0 32 56 VTop 2
WINDOW 3 5 56 VBottom 2
SYMATTR InstName L1
SYMATTR Value 50µH
SYMATTR SpiceLine Rser=0.5
SYMBOL voltage 32 48 R0
SYMATTR InstName V1
SYMATTR Value 1
SYMBOL Cap 592 96 R0
SYMATTR InstName C2
SYMATTR Value 100µF
SYMBOL Res 688 80 R0
SYMATTR InstName R1
SYMATTR Value 1000
SYMBOL res -272 64 R90
WINDOW 0 0 56 VBottom 2
WINDOW 3 32 56 VTop 2
SYMATTR InstName R2
SYMATTR Value 4.7
SYMBOL res -272 -144 R90
WINDOW 0 0 56 VBottom 2
WINDOW 3 32 56 VTop 2
SYMATTR InstName R3
SYMATTR Value 4.7
SYMBOL cap -832 -224 R0
SYMATTR InstName C1
SYMATTR Value 1µ
SYMBOL cap -528 -208 R0
SYMATTR InstName C3
SYMATTR Value 1µ
SYMBOL diode -528 -304 R0
SYMATTR InstName D1
SYMATTR Value 1N4148
SYMBOL res -864 0 R0
SYMATTR InstName R4
SYMATTR Value 20k
SYMBOL LM5106_TRANS -656 -48 R0
SYMATTR InstName U1
SYMBOL voltage -512 224 R0
WINDOW 123 0 0 Left 0
WINDOW 39 24 124 Left 2
SYMATTR SpiceLine Rser=0.1
SYMATTR InstName V2
SYMATTR Value 12
SYMBOL voltage -1008 -64 R0
SYMATTR InstName V3
SYMATTR Value PULSE(0 5 0 1n 1n 25u 50u)
TEXT -408 -40 Left 2 !.tran 0 500ms 0 10us
